data_image0
_chemical_formula_structural       CNH6PbI3
_chemical_formula_sum              "C1 N1 H6 Pb1 I3"
_cell_length_a       6.29012
_cell_length_b       6.27389
_cell_length_c       6.29704
_cell_angle_alpha    90.0014
_cell_angle_beta     90.3609
_cell_angle_gamma    89.9993

_space_group_name_H-M_alt    "P 1"
_space_group_IT_number       1

loop_
  _space_group_symop_operation_xyz
  'x, y, z'

loop_
  _atom_site_type_symbol
  _atom_site_label
  _atom_site_symmetry_multiplicity
  _atom_site_fract_x
  _atom_site_fract_y
  _atom_site_fract_z
  _atom_site_occupancy
  C   C1        1.0  0.90278  0.99996  0.99633  1.0000
  N   N1        1.0  0.13658  0.99983  0.02488  1.0000
  H   H1        1.0  0.86451  0.99971  0.82573  1.0000
  H   H2        1.0  0.83779  0.14376  0.07193  1.0000
  H   H3        1.0  0.83759  0.85652  0.07238  1.0000
  H   H4        1.0  0.20759  0.13427  0.95813  1.0000
  H   H5        1.0  0.20739  0.86506  0.95850  1.0000
  H   H6        1.0  0.18201  0.00000  0.18535  1.0000
  Pb  Pb1       1.0  0.46118  0.35648  0.61888  1.0000
  I   I1        1.0  0.42680  0.49988  0.97261  1.0000
  I   I2        1.0  0.43586  0.00005  0.50654  1.0000
  I   I3        1.0  0.96290  0.50023  0.44775  1.0000
