data_image0
_chemical_formula_structural       CNH6PbI3CNH6PbI3CNH6PbI3CNH6PbI3CNH6PbI3CNH6PbI3CNH6PbI3CNH6PbI3
_chemical_formula_sum              "C8 N8 H48 Pb8 I24"
_cell_length_a       12.5802
_cell_length_b       12.5478
_cell_length_c       12.5941
_cell_angle_alpha    90.0014
_cell_angle_beta     90.3609
_cell_angle_gamma    89.9993

_space_group_name_H-M_alt    "P 1"
_space_group_IT_number       1

loop_
  _space_group_symop_operation_xyz
  'x, y, z'

loop_
  _atom_site_type_symbol
  _atom_site_label
  _atom_site_symmetry_multiplicity
  _atom_site_fract_x
  _atom_site_fract_y
  _atom_site_fract_z
  _atom_site_occupancy
  C   C1        1.0  0.45139  0.49998  0.49817  1.0000
  N   N1        1.0  0.06829  0.49991  0.01244  1.0000
  H   H1        1.0  0.43225  0.49986  0.41287  1.0000
  H   H2        1.0  0.41890  0.07188  0.03596  1.0000
  H   H3        1.0  0.41879  0.42826  0.03619  1.0000
  H   H4        1.0  0.10379  0.06714  0.47907  1.0000
  H   H5        1.0  0.10370  0.43253  0.47925  1.0000
  H   H6        1.0  0.09101  0.00000  0.09268  1.0000
  Pb  Pb1       1.0  0.23809  0.25002  0.23782  1.0000
  I   I1        1.0  0.21340  0.24994  0.48630  1.0000
  I   I2        1.0  0.21793  0.00002  0.25327  1.0000
  I   I3        1.0  0.48145  0.25011  0.22387  1.0000
  C   C2        1.0  0.45139  0.49998  0.99817  1.0000
  N   N2        1.0  0.06829  0.49991  0.51244  1.0000
  H   H7        1.0  0.43225  0.49986  0.91287  1.0000
  H   H8        1.0  0.41890  0.07188  0.53596  1.0000
  H   H9        1.0  0.41879  0.42826  0.53619  1.0000
  H   H10       1.0  0.10379  0.06714  0.97907  1.0000
  H   H11       1.0  0.10370  0.43253  0.97925  1.0000
  H   H12       1.0  0.09101  0.00000  0.59268  1.0000
  Pb  Pb2       1.0  0.23809  0.25002  0.73782  1.0000
  I   I4        1.0  0.21340  0.24994  0.98630  1.0000
  I   I5        1.0  0.21793  0.00002  0.75327  1.0000
  I   I6        1.0  0.48145  0.25011  0.72387  1.0000
  C   C3        1.0  0.45139  0.99998  0.49817  1.0000
  N   N3        1.0  0.06829  0.99991  0.01244  1.0000
  H   H13       1.0  0.43225  0.99986  0.41287  1.0000
  H   H14       1.0  0.41890  0.57188  0.03596  1.0000
  H   H15       1.0  0.41879  0.92826  0.03619  1.0000
  H   H16       1.0  0.10379  0.56714  0.47907  1.0000
  H   H17       1.0  0.10370  0.93253  0.47925  1.0000
  H   H18       1.0  0.09101  0.50000  0.09268  1.0000
  Pb  Pb3       1.0  0.23809  0.75002  0.23782  1.0000
  I   I7        1.0  0.21340  0.74994  0.48630  1.0000
  I   I8        1.0  0.21793  0.50002  0.25327  1.0000
  I   I9        1.0  0.48145  0.75011  0.22387  1.0000
  C   C4        1.0  0.45139  0.99998  0.99817  1.0000
  N   N4        1.0  0.06829  0.99991  0.51244  1.0000
  H   H19       1.0  0.43225  0.99986  0.91287  1.0000
  H   H20       1.0  0.41890  0.57188  0.53596  1.0000
  H   H21       1.0  0.41879  0.92826  0.53619  1.0000
  H   H22       1.0  0.10379  0.56714  0.97907  1.0000
  H   H23       1.0  0.10370  0.93253  0.97925  1.0000
  H   H24       1.0  0.09101  0.50000  0.59268  1.0000
  Pb  Pb4       1.0  0.23809  0.75002  0.73782  1.0000
  I   I10       1.0  0.21340  0.74994  0.98630  1.0000
  I   I11       1.0  0.21793  0.50002  0.75327  1.0000
  I   I12       1.0  0.48145  0.75011  0.72387  1.0000
  C   C5        1.0  0.95139  0.49998  0.49817  1.0000
  N   N5        1.0  0.56829  0.49991  0.01244  1.0000
  H   H25       1.0  0.93225  0.49986  0.41287  1.0000
  H   H26       1.0  0.91890  0.07188  0.03596  1.0000
  H   H27       1.0  0.91879  0.42826  0.03619  1.0000
  H   H28       1.0  0.60379  0.06714  0.47907  1.0000
  H   H29       1.0  0.60370  0.43253  0.47925  1.0000
  H   H30       1.0  0.59101  0.00000  0.09268  1.0000
  Pb  Pb5       1.0  0.73809  0.25002  0.23782  1.0000
  I   I13       1.0  0.71340  0.24994  0.48630  1.0000
  I   I14       1.0  0.71793  0.00002  0.25327  1.0000
  I   I15       1.0  0.98145  0.25011  0.22387  1.0000
  C   C6        1.0  0.95139  0.49998  0.99817  1.0000
  N   N6        1.0  0.56829  0.49991  0.51244  1.0000
  H   H31       1.0  0.93225  0.49986  0.91287  1.0000
  H   H32       1.0  0.91890  0.07188  0.53596  1.0000
  H   H33       1.0  0.91879  0.42826  0.53619  1.0000
  H   H34       1.0  0.60379  0.06714  0.97907  1.0000
  H   H35       1.0  0.60370  0.43253  0.97925  1.0000
  H   H36       1.0  0.59101  0.00000  0.59268  1.0000
  Pb  Pb6       1.0  0.73809  0.25002  0.73782  1.0000
  I   I16       1.0  0.71340  0.24994  0.98630  1.0000
  I   I17       1.0  0.71793  0.00002  0.75327  1.0000
  I   I18       1.0  0.98145  0.25011  0.72387  1.0000
  C   C7        1.0  0.95139  0.99998  0.49817  1.0000
  N   N7        1.0  0.56829  0.99991  0.01244  1.0000
  H   H37       1.0  0.93225  0.99986  0.41287  1.0000
  H   H38       1.0  0.91890  0.57188  0.03596  1.0000
  H   H39       1.0  0.91879  0.92826  0.03619  1.0000
  H   H40       1.0  0.60379  0.56714  0.47907  1.0000
  H   H41       1.0  0.60370  0.93253  0.47925  1.0000
  H   H42       1.0  0.59101  0.50000  0.09268  1.0000
  Pb  Pb7       1.0  0.73809  0.75002  0.23782  1.0000
  I   I19       1.0  0.71340  0.74994  0.48630  1.0000
  I   I20       1.0  0.71793  0.50002  0.25327  1.0000
  I   I21       1.0  0.98145  0.75011  0.22387  1.0000
  C   C8        1.0  0.95139  0.99998  0.99817  1.0000
  N   N8        1.0  0.56829  0.99991  0.51244  1.0000
  H   H43       1.0  0.93225  0.99986  0.91287  1.0000
  H   H44       1.0  0.91890  0.57188  0.53596  1.0000
  H   H45       1.0  0.91879  0.92826  0.53619  1.0000
  H   H46       1.0  0.60379  0.56714  0.97907  1.0000
  H   H47       1.0  0.60370  0.93253  0.97925  1.0000
  H   H48       1.0  0.59101  0.50000  0.59268  1.0000
  Pb  Pb8       1.0  0.73809  0.75002  0.73782  1.0000
  I   I22       1.0  0.71340  0.74994  0.98630  1.0000
  I   I23       1.0  0.71793  0.50002  0.75327  1.0000
  I   I24       1.0  0.98145  0.75011  0.72387  1.0000
